@<TRIPOS>MOLECULE
rta
   80    84     1     0     0
SMALL
No Charge or Current Charge


@<TRIPOS>ATOM
      1 C1          -3.5400     1.2630     0.8570 c2         1 rta      -0.130000
      2 H1          -2.9670     2.0340     1.3290 ha         1 rta       0.181100
      3 C6          -4.7850     1.5500     0.4880 ce         1 rta      -0.117300
      4 C5          -5.6960     0.5270    -0.1010 c          1 rta       0.513600
      5 O1          -6.8770     0.6900    -0.0800 o          1 rta      -0.473900
      6 C4          -5.0680    -0.7040    -0.7620 c3         1 rta       0.115900
      7 C10         -5.4360    -0.5730    -2.2590 c3         1 rta      -0.138300
      8 H101        -5.0210    -1.3950    -2.8310 hc         1 rta       0.042000
      9 H102        -5.0590     0.3530    -2.6820 hc         1 rta       0.042000
     10 H103        -6.5110    -0.5830    -2.3810 hc         1 rta       0.042000
     11 C9          -5.7600    -1.9690    -0.2170 c3         1 rta      -0.080800
     12 H91         -6.8330    -1.8510    -0.2940 hc         1 rta       0.023400
     13 H92         -5.4760    -2.8370    -0.8000 hc         1 rta       0.023400
     14 HC91        -5.5220    -2.1720     0.8180 hc         1 rta       0.023400
     15 C3          -3.5150    -0.7010    -0.6300 c3         1 rta      -0.054000
     16 H3          -3.1710     0.0030    -1.3850 hc         1 rta       0.047300
     17 C14         -2.8620    -2.0380    -0.9750 c3         1 rta      -0.067500
     18 H141        -3.0080    -2.7610    -0.1800 hc         1 rta       0.045100
     19 H142        -3.3250    -2.4670    -1.8560 hc         1 rta       0.045100
     20 C13         -1.3810    -1.8260    -1.2730 c3         1 rta      -0.049600
     21 H131        -1.3160    -1.2470    -2.1850 hc         1 rta       0.035800
     22 H132        -0.9130    -2.7800    -1.4910 hc         1 rta       0.035800
     23 C12         -0.5900    -1.1520    -0.1250 c3         1 rta       0.049200
     24 C20         -0.2870    -2.2870     0.8980 c3         1 rta      -0.169000
     25 H201         0.4680    -2.9670     0.5250 hc         1 rta       0.051600
     26 H202        -1.1760    -2.8780     1.0740 hc         1 rta       0.051600
     27 H203         0.0350    -1.9160     1.8610 hc         1 rta       0.051600
     28 C11         -1.3960    -0.0740     0.6410 c2         1 rta      -0.047400
     29 C15         -0.7250     0.8190     1.3630 ce         1 rta      -0.195400
     30 H15         -1.2060     1.5380     1.9980 ha         1 rta       0.125900
     31 C16          0.7550     0.9330     1.4140 c          1 rta       0.447400
     32 O2           1.2620     1.7130     2.1670 o          1 rta      -0.510000
     33 C18          1.5640     0.0040     0.5280 c3         1 rta       0.024900
     34 H18          1.6970    -0.8720     1.1580 hc         1 rta       0.052500
     35 C22          3.0120     0.4930     0.2720 c3         1 rta       0.001800
     36 H22          3.4500     0.5880     1.2540 hc         1 rta      -0.001100
     37 C25          3.1490     1.8700    -0.4050 c3         1 rta      -0.065100
     38 H251         2.6630     1.8760    -1.3720 hc         1 rta       0.018600
     39 H252         2.6360     2.6040     0.2050 hc         1 rta       0.018600
     40 C26          4.6070     2.3210    -0.6240 c3         1 rta       0.312900
     41 C29          5.3260     2.5800     0.7100 c3         1 rta      -0.091900
     42 H291         5.3940     1.6990     1.3360 hc         1 rta       0.011100
     43 H292         6.3380     2.9330     0.5330 hc         1 rta       0.011100
     44 H293         4.8040     3.3420     1.2810 hc         1 rta       0.011100
     45 C30          4.5990     3.6330    -1.4210 c3         1 rta      -0.226500
     46 H301         5.6120     3.9760    -1.6180 hc         1 rta       0.036800
     47 H302         4.1000     3.5130    -2.3790 hc         1 rta       0.036800
     48 H303         4.0850     4.4190    -0.8760 hc         1 rta       0.036800
     49 C27          5.3240     1.2370    -1.4460 c3         1 rta      -0.072600
     50 H271         4.9030     1.2210    -2.4480 hc         1 rta       0.004800
     51 H272         6.3740     1.4940    -1.5650 hc         1 rta       0.004800
     52 C28          5.2310    -0.1570    -0.8240 c3         1 rta      -0.037100
     53 H281         5.8150    -0.1740     0.0890 hc         1 rta       0.010900
     54 H282         5.6820    -0.8860    -1.4910 hc         1 rta       0.010900
     55 C17          3.7820    -0.6150    -0.4970 c3         1 rta       0.058400
     56 C23          3.0150    -0.9980    -1.7760 c3         1 rta      -0.059600
     57 H231         3.5400    -1.7990    -2.2810 hc         1 rta       0.017500
     58 H232         3.0250    -0.1510    -2.4510 hc         1 rta       0.017500
     59 C24          1.5700    -1.4550    -1.5240 c3         1 rta      -0.025800
     60 H241         1.0930    -1.6170    -2.4850 hc         1 rta       0.014000
     61 H242         1.6140    -2.4200    -1.0400 hc         1 rta       0.014000
     62 C19          0.7260    -0.4620    -0.6900 c3         1 rta       0.022300
     63 C21          0.3400     0.7390    -1.6010 c3         1 rta      -0.081300
     64 H211         1.0710     0.8850    -2.3830 hc         1 rta       0.016500
     65 H212        -0.6090     0.5840    -2.0970 hc         1 rta       0.016500
     66 H213         0.2570     1.6730    -1.0620 hc         1 rta       0.016500
     67 C31          3.9680    -1.8710     0.3600 c          1 rta       0.701300
     68 C2          -2.9460    -0.1240     0.7000 c3         1 rta       0.013400
     69 C8          -3.3470    -0.9110     1.9790 c3         1 rta      -0.162400
     70 H81         -3.0230    -1.9410     1.9400 hc         1 rta       0.067900
     71 H82         -4.4170    -0.8950     2.1320 hc         1 rta       0.067900
     72 HC81        -2.8860    -0.4540     2.8470 hc         1 rta       0.067900
     73 C7          -5.3300     2.8650     0.7310 cg         1 rta       0.326000
     74 N1          -5.7280     3.9120     0.9210 n1         1 rta      -0.448700
     75 O3           3.8840    -2.9890    -0.0450 o          1 rta      -0.562900
     76 O4           4.3010    -1.6000     1.6140 os         1 rta      -0.378300
     77 C32          4.5870    -2.6990     2.4610 c3         1 rta      -0.079100
     78 H321         3.7260    -3.3450     2.5490 h1         1 rta       0.096800
     79 H322         5.4200    -3.2670     2.0750 h1         1 rta       0.096800
     80 H323         4.8350    -2.2730     3.4210 h1         1 rta       0.096800
@<TRIPOS>BOND
     1     1     2 1   
     2     1     3 2   
     3     1    68 1   
     4     3     4 1   
     5     3    73 1   
     6     4     5 2   
     7     4     6 1   
     8     6     7 1   
     9     6    11 1   
    10     6    15 1   
    11     7     8 1   
    12     7     9 1   
    13     7    10 1   
    14    11    12 1   
    15    11    13 1   
    16    11    14 1   
    17    15    16 1   
    18    15    17 1   
    19    15    68 1   
    20    17    18 1   
    21    17    19 1   
    22    17    20 1   
    23    20    21 1   
    24    20    22 1   
    25    20    23 1   
    26    23    24 1   
    27    23    28 1   
    28    23    62 1   
    29    24    25 1   
    30    24    26 1   
    31    24    27 1   
    32    28    29 2   
    33    28    68 1   
    34    29    30 1   
    35    29    31 1   
    36    31    32 2   
    37    31    33 1   
    38    33    34 1   
    39    33    35 1   
    40    33    62 1   
    41    35    36 1   
    42    35    37 1   
    43    35    55 1   
    44    37    38 1   
    45    37    39 1   
    46    37    40 1   
    47    40    41 1   
    48    40    45 1   
    49    40    49 1   
    50    41    42 1   
    51    41    43 1   
    52    41    44 1   
    53    45    46 1   
    54    45    47 1   
    55    45    48 1   
    56    49    50 1   
    57    49    51 1   
    58    49    52 1   
    59    52    53 1   
    60    52    54 1   
    61    52    55 1   
    62    55    56 1   
    63    55    67 1   
    64    56    57 1   
    65    56    58 1   
    66    56    59 1   
    67    59    60 1   
    68    59    61 1   
    69    59    62 1   
    70    62    63 1   
    71    63    64 1   
    72    63    65 1   
    73    63    66 1   
    74    67    75 2   
    75    67    76 1   
    76    68    69 1   
    77    69    70 1   
    78    69    71 1   
    79    69    72 1   
    80    73    74 3   
    81    76    77 1   
    82    77    78 1   
    83    77    79 1   
    84    77    80 1   
@<TRIPOS>SUBSTRUCTURE
     1 rta         1 TEMP              0 ****  ****    0 ROOT
