@<TRIPOS>MOLECULE
UNK
76 80 1 0 1
SMALL
USER_CHARGES
@<TRIPOS>ATOM
       1 C1          29.7522    60.4902    29.4880 c2            1 UNK       -0.135200
       2 H1          29.4347    61.2642    29.0392 ha            1 UNK        0.191200
       3 C6          30.3727    60.8974    30.8134 ce            1 UNK       -0.114600
       4 C5          31.3943    60.1988    31.4176 c             1 UNK        0.512000
       5 O1          31.9103    60.5213    32.4969 o             1 UNK       -0.495300
       6 C4          32.0166    58.9447    30.8390 c3            1 UNK        0.123300
       7 C10         31.7920    57.8057    31.8268 c3            1 UNK       -0.124300
       8 H101        32.2530    58.0566    32.7831 hc            1 UNK        0.031300
       9 H103        30.7220    57.6527    31.9684 hc            1 UNK        0.031300
      10 H102        32.2418    56.8925    31.4369 hc            1 UNK        0.031300
      11 C9          33.5196    59.1661    30.7188 c3            1 UNK       -0.109700
      12 HC91        33.7125    59.9853    30.0267 hc            1 UNK        0.027300
      13 H91         33.9311    59.4137    31.6982 hc            1 UNK        0.027300
      14 H92         33.9920    58.2570    30.3469 hc            1 UNK        0.027300
      15 C3          31.3515    58.5816    29.4588 c3            1 UNK       -0.030000
      16 H3          30.4701    57.9933    29.7152 hc            1 UNK        0.049400
      17 C14         32.2125    57.6530    28.6093 c3            1 UNK       -0.037300
      18 H142        32.6434    56.8810    29.2465 hc            1 UNK        0.031400
      19 H141        33.0166    58.2317    28.1534 hc            1 UNK        0.031400
      20 C13         31.3947    56.9980    27.5172 c3            1 UNK       -0.038900
      21 H131        30.6118    56.4018    27.9852 hc            1 UNK        0.017300
      22 H132        32.0430    56.3353    26.9435 hc            1 UNK        0.017300
      23 C12         30.7313    58.0009    26.5509 c3            1 UNK        0.029900
      24 C20         31.8189    58.5001    25.6070 c3            1 UNK       -0.128200
      25 H203        32.6064    58.9846    26.1838 hc            1 UNK        0.045900
      26 H202        32.2386    57.6566    25.0577 hc            1 UNK        0.045900
      27 H201        31.3910    59.2140    24.9036 hc            1 UNK        0.045900
      28 C11         30.1837    59.2585    27.2660 c2            1 UNK       -0.082300
      29 C15         29.1527    59.9245    26.6924 ce            1 UNK       -0.138200
      30 H15         28.7838    60.8026    27.2020 ha            1 UNK        0.099800
      31 C16         28.4973    59.5503    25.4364 c             1 UNK        0.405100
      32 O2          27.5572    60.2235    24.9915 o             1 UNK       -0.524400
      33 C18         29.0111    58.3269    24.7002 c3            1 UNK        0.028500
      34 H18         29.8966    58.6506    24.1522 hc            1 UNK        0.097600
      35 C22         28.0214    57.7797    23.6394 c3            1 UNK        0.019000
      36 H22         27.9451    58.4456    22.9674 hc            1 UNK        0.009900
      37 C25         26.6021    57.5186    24.1683 c3            1 UNK       -0.074500
      38 H252        26.2513    58.3334    24.5063 hc            1 UNK        0.004300
      39 H251        26.6651    56.8986    24.8836 hc            1 UNK        0.004300
      40 C26         25.6140    56.9551    23.1337 c3            1 UNK        0.316800
      41 C29         25.3102    57.9980    22.0644 c3            1 UNK       -0.122900
      42 H293        26.1146    58.2420    21.6226 hc            1 UNK        0.008200
      43 H291        24.7003    57.6365    21.4334 hc            1 UNK        0.008200
      44 H292        24.9273    58.7651    22.4703 hc            1 UNK        0.008200
      45 C30         24.3179    56.5737    23.8403 c3            1 UNK       -0.216300
      46 H301        23.7036    56.2252    23.2067 hc            1 UNK        0.022600
      47 H302        24.4992    55.9165    24.5003 hc            1 UNK        0.022600
      48 H303        23.9443    57.3429    24.2529 hc            1 UNK        0.022600
      49 C27         26.2314    55.7008    22.4947 c3            1 UNK       -0.058600
      50 H271        26.2847    55.0229    23.1560 hc            1 UNK       -0.024800
      51 H272        25.6628    55.4032    21.7959 hc            1 UNK       -0.024800
      52 C28         27.6250    55.9304    21.9284 c3            1 UNK       -0.030800
      53 H282        27.9646    55.1043    21.6086 hc            1 UNK        0.004900
      54 H281        27.5574    56.5351    21.1997 hc            1 UNK        0.004900
      55 C17         28.6170    56.5108    22.9496 c3            1 UNK        0.155200
      56 C23         28.9990    55.4688    24.0138 c3            1 UNK       -0.046500
      57 H232        28.0942    55.1395    24.5247 hc            1 UNK       -0.010100
      58 H231        29.4517    54.6126    23.5131 hc            1 UNK       -0.010100
      59 C24         29.9842    56.0006    25.0516 c3            1 UNK       -0.042800
      60 H241        30.1375    55.2289    25.8064 hc            1 UNK        0.025500
      61 H242        30.9354    56.2033    24.5597 hc            1 UNK        0.025500
      62 C19         29.5086    57.2880    25.7615 c3            1 UNK        0.069900
      63 C21         28.4151    56.8965    26.7494 c3            1 UNK       -0.176800
      64 H213        28.0466    57.7882    27.2549 hc            1 UNK        0.024800
      65 H211        27.5959    56.4178    26.2142 hc            1 UNK        0.024800
      66 H212        28.8222    56.2030    27.4857 hc            1 UNK        0.024800
      67 C31         29.7928    56.8152    22.1628 c             1 UNK        0.705400
      68 O3          29.9438    57.9480    21.6863 o             1 UNK       -0.773900
      69 O4          30.6887    55.9032    21.9568 o             1 UNK       -0.773800
      70 C2          30.8095    59.7682    28.5894 c3            1 UNK       -0.003200
      71 C8          31.8608    60.7938    28.1807 c3            1 UNK       -0.155300
      72 H81         31.3923    61.5755    27.5818 hc            1 UNK        0.060600
      73 HC81        32.3035    61.2354    29.0730 hc            1 UNK        0.060600
      74 H82         32.6374    60.3037    27.5933 hc            1 UNK        0.060600
      75 C7          29.8493    62.0619    31.4317 cg            1 UNK        0.335300
      76 N1          29.3764    63.1084    31.9841 n1            1 UNK       -0.473600
@<TRIPOS>BOND
       1        1        2 1
       2        1        3 2
       3        1       70 1
       4        3        4 1
       5        3       75 1
       6        4        5 2
       7        4        6 1
       8        6        7 1
       9        6       11 1
      10        6       15 1
      11        7        8 1
      12        7        9 1
      13        7       10 1
      14       11       12 1
      15       11       13 1
      16       11       14 1
      17       15       16 1
      18       15       17 1
      19       15       70 1
      20       17       18 1
      21       17       19 1
      22       17       20 1
      23       20       21 1
      24       20       22 1
      25       20       23 1
      26       23       24 1
      27       23       28 1
      28       23       62 1
      29       24       25 1
      30       24       26 1
      31       24       27 1
      32       28       29 2
      33       28       70 1
      34       29       30 1
      35       29       31 1
      36       31       32 2
      37       31       33 1
      38       33       34 1
      39       33       35 1
      40       33       62 1
      41       35       36 1
      42       35       37 1
      43       35       55 1
      44       37       38 1
      45       37       39 1
      46       37       40 1
      47       40       41 1
      48       40       45 1
      49       40       49 1
      50       41       42 1
      51       41       43 1
      52       41       44 1
      53       45       46 1
      54       45       47 1
      55       45       48 1
      56       49       50 1
      57       49       51 1
      58       49       52 1
      59       52       53 1
      60       52       54 1
      61       52       55 1
      62       55       56 1
      63       55       67 1
      64       56       57 1
      65       56       58 1
      66       56       59 1
      67       59       60 1
      68       59       61 1
      69       59       62 1
      70       62       63 1
      71       63       64 1
      72       63       65 1
      73       63       66 1
      74       67       68 1
      75       67       69 1
      76       70       71 1
      77       71       72 1
      78       71       73 1
      79       71       74 1
      80       75       76 3
@<TRIPOS>SUBSTRUCTURE
       1 UNK             1 RESIDUE    0 **** ROOT      0
