@<TRIPOS>MOLECULE
UNK
76 80 1 0 1
SMALL
USER_CHARGES
@<TRIPOS>ATOM
       1 C1           3.3610     7.0430   -10.3080 c2            1 UNK       -0.135200
       2 H1           3.0490     7.9280   -10.1640 ha            1 UNK        0.191200
       3 C6           4.3860     7.0480   -11.4290 ce            1 UNK       -0.114600
       4 C5           4.5980     5.9750   -12.2660 c             1 UNK        0.512000
       5 O1           5.4290     5.9670   -13.1850 o             1 UNK       -0.495300
       6 C4           3.8420     4.6660   -12.1680 c3            1 UNK        0.123300
       7 C10          4.8490     3.5580   -11.8820 c3            1 UNK       -0.124300
       8 H101         5.5840     3.5170   -12.6870 hc            1 UNK        0.031300
       9 H103         5.3550     3.7610   -10.9380 hc            1 UNK        0.031300
      10 H102         4.3290     2.6020   -11.8180 hc            1 UNK        0.031300
      11 C9           3.2050     4.3770   -13.5220 c3            1 UNK       -0.109700
      12 HC91         2.4870     5.1610   -13.7610 hc            1 UNK        0.027300
      13 H91          3.9790     4.3470   -14.2900 hc            1 UNK        0.027300
      14 H92          2.6940     3.4150   -13.4850 hc            1 UNK        0.027300
      15 C3           2.7810     4.7240   -11.0060 c3            1 UNK       -0.030000
      16 H3           3.3300     4.4430   -10.1070 hc            1 UNK        0.049400
      17 C14          1.6870     3.6710   -11.1460 c3            1 UNK       -0.037300
      18 H142         2.1360     2.7260   -11.4510 hc            1 UNK        0.031400
      19 H141         0.9780     3.9940   -11.9090 hc            1 UNK        0.031400
      20 C13          0.9500     3.4730    -9.8390 c3            1 UNK       -0.038900
      21 H131         1.6630     3.1250    -9.0920 hc            1 UNK        0.017300
      22 H132         0.1880     2.7060    -9.9790 hc            1 UNK        0.017300
      23 C12          0.2730     4.7530    -9.3070 c3            1 UNK        0.029900
      24 C20         -0.9920     4.9660   -10.1300 c3            1 UNK       -0.128200
      25 H203        -0.7270     5.0790   -11.1810 hc            1 UNK        0.045900
      26 H202        -1.6510     4.1050   -10.0130 hc            1 UNK        0.045900
      27 H201        -1.5040     5.8640    -9.7850 hc            1 UNK        0.045900
      28 C11          1.1310     6.0230    -9.5160 c2            1 UNK       -0.082300
      29 C15          0.9510     7.0650    -8.6690 ce            1 UNK       -0.138200
      30 H15          1.5550     7.9460    -8.8300 ha            1 UNK        0.099800
      31 C16          0.0030     7.0940    -7.5520 c             1 UNK        0.405100
      32 O2          -0.0880     8.0960    -6.8290 o             1 UNK       -0.524400
      33 C18         -0.8630     5.8700    -7.3190 c3            1 UNK        0.028500
      34 H18         -1.6860     5.9390    -8.0310 hc            1 UNK        0.097600
      35 C22         -1.5110     5.8270    -5.9110 c3            1 UNK        0.019000
      36 H22         -2.1160     6.5570    -5.8660 hc            1 UNK        0.009900
      37 C25         -0.5200     6.0000    -4.7490 c3            1 UNK       -0.074500
      38 H252        -0.0830     6.8370    -4.8470 hc            1 UNK        0.004300
      39 H251         0.1300     5.3120    -4.8130 hc            1 UNK        0.004300
      40 C26         -1.1440     5.9380    -3.3450 c3            1 UNK        0.316800
      41 C29         -2.0430     7.1460    -3.1080 c3            1 UNK       -0.122900
      42 H293        -2.7380     7.1550    -3.7550 hc            1 UNK        0.008200
      43 H291        -2.4210     7.0940    -2.2390 hc            1 UNK        0.008200
      44 H292        -1.5310     7.9410    -3.1830 hc            1 UNK        0.008200
      45 C30         -0.0290     5.9350    -2.3050 c3            1 UNK       -0.216300
      46 H301        -0.4080     5.8970    -1.4360 hc            1 UNK        0.022600
      47 H302         0.5280     5.1790    -2.4410 hc            1 UNK        0.022600
      48 H303         0.4860     6.7280    -2.3910 hc            1 UNK        0.022600
      49 C27         -1.9550     4.6380    -3.2230 c3            1 UNK       -0.058600
      50 H271        -1.3520     3.9060    -3.2400 hc            1 UNK       -0.024800
      51 H272        -2.4110     4.6400    -2.3910 hc            1 UNK       -0.024800
      52 C28         -2.9720     4.4490    -4.3390 c3            1 UNK       -0.030800
      53 H282        -3.3880     3.6030    -4.2330 hc            1 UNK        0.004900
      54 H281        -3.6330     5.1260    -4.2610 hc            1 UNK        0.004900
      55 C17         -2.3620     4.5270    -5.7480 c3            1 UNK        0.155200
      56 C23         -1.4950     3.2940    -6.0520 c3            1 UNK       -0.046500
      57 H232        -0.7000     3.2310    -5.3090 hc            1 UNK       -0.010100
      58 H231        -2.1200     2.4040    -5.9750 hc            1 UNK       -0.010100
      59 C24         -0.8670     3.3270    -7.4430 c3            1 UNK       -0.042800
      60 H241        -0.2110     2.4620    -7.5440 hc            1 UNK        0.025500
      61 H242        -1.6600     3.2540    -8.1870 hc            1 UNK        0.025500
      62 C19         -0.0390     4.6010    -7.7240 c3            1 UNK        0.069900
      63 C21          1.2690     4.4850    -6.9490 c3            1 UNK       -0.176800
      64 H213         1.8690     5.3790    -7.1140 hc            1 UNK        0.024800
      65 H211         1.0540     4.3830    -5.8860 hc            1 UNK        0.024800
      66 H212         1.8190     3.6090    -7.2940 hc            1 UNK        0.024800
      67 C31         -3.5100     4.5090    -6.6290 c             1 UNK        0.705400
      68 O3          -4.0120     5.5730    -7.0150 o             1 UNK       -0.773900
      69 O4          -4.0130     3.3800    -7.0150 o             1 UNK       -0.773800
      70 C2           2.1520     6.1220   -10.6780 c3            1 UNK       -0.003200
      71 C8           1.4000     6.7720   -11.8340 c3            1 UNK       -0.155300
      72 H81          1.0000     7.7340   -11.5120 hc            1 UNK        0.060600
      73 HC81         2.0810     6.9230   -12.6710 hc            1 UNK        0.060600
      74 H82          0.5800     6.1240   -12.1440 hc            1 UNK        0.060600
      75 C7           5.1450     8.2350   -11.5940 cg            1 UNK        0.335300
      76 N1           5.8250     9.3030   -11.7390 n1            1 UNK       -0.473600
@<TRIPOS>BOND
       1        1        2 1
       2        1        3 2
       3        1       70 1
       4        3        4 1
       5        3       75 1
       6        4        5 2
       7        4        6 1
       8        6        7 1
       9        6       11 1
      10        6       15 1
      11        7        8 1
      12        7        9 1
      13        7       10 1
      14       11       12 1
      15       11       13 1
      16       11       14 1
      17       15       16 1
      18       15       17 1
      19       15       70 1
      20       17       18 1
      21       17       19 1
      22       17       20 1
      23       20       21 1
      24       20       22 1
      25       20       23 1
      26       23       24 1
      27       23       28 1
      28       23       62 1
      29       24       25 1
      30       24       26 1
      31       24       27 1
      32       28       29 2
      33       28       70 1
      34       29       30 1
      35       29       31 1
      36       31       32 2
      37       31       33 1
      38       33       34 1
      39       33       35 1
      40       33       62 1
      41       35       36 1
      42       35       37 1
      43       35       55 1
      44       37       38 1
      45       37       39 1
      46       37       40 1
      47       40       41 1
      48       40       45 1
      49       40       49 1
      50       41       42 1
      51       41       43 1
      52       41       44 1
      53       45       46 1
      54       45       47 1
      55       45       48 1
      56       49       50 1
      57       49       51 1
      58       49       52 1
      59       52       53 1
      60       52       54 1
      61       52       55 1
      62       55       56 1
      63       55       67 1
      64       56       57 1
      65       56       58 1
      66       56       59 1
      67       59       60 1
      68       59       61 1
      69       59       62 1
      70       62       63 1
      71       63       64 1
      72       63       65 1
      73       63       66 1
      74       67       68 1
      75       67       69 1
      76       70       71 1
      77       71       72 1
      78       71       73 1
      79       71       74 1
      80       75       76 3
@<TRIPOS>SUBSTRUCTURE
       1 UNK             1 RESIDUE    0 **** ROOT      0
